*SPEF "1481-1998"
*DESIGN "i2c_master_top"
*DATE "Tue May 14 07:57:52 2024"
*VENDOR "Synopsys, Inc."
*PROGRAM "icc2 /eda/synopsys/icc2/V-2023.12/linux64/nwtn/bin/icc2_exec"
*VERSION "V-2023.12 Nov 23, 2023"
*DESIGN_FLOW "ICC2 SPEF DR"
*DIVIDER /
*DELIMITER :
*BUS_DELIMITER [ ]
*T_UNIT 1 NS
*C_UNIT 1 FF
*R_UNIT 1 OHM
*L_UNIT 1 HENRY

// XY_UNIT 1 UM
// PARASITIC_TECH minTLU at -40.000 degree

*NAME_MAP
*1 wb_clk_i
*2 wb_rst_i
*3 arst_i
*4 wb_adr_i[2]
*5 wb_adr_i[1]
*6 wb_adr_i[0]
*7 wb_dat_i[7]
*8 wb_dat_i[6]
*9 wb_dat_i[5]
*10 wb_dat_i[4]
*11 wb_dat_i[3]
*12 wb_dat_i[2]
*13 wb_dat_i[1]
*14 wb_dat_i[0]
*15 wb_dat_o[7]
*16 wb_dat_o[6]
*17 wb_dat_o[5]
*18 wb_dat_o[4]
*19 wb_dat_o[3]
*20 wb_dat_o[2]
*21 wb_dat_o[1]
*22 wb_dat_o[0]
*23 wb_we_i
*24 wb_stb_i
*25 wb_cyc_i
*26 wb_ack_o
*27 wb_inta_o
*28 scl_pad_i
*29 scl_pad_o
*30 scl_padoen_o
*31 sda_pad_i
*32 sda_pad_o
*33 sda_padoen_o
*34 VDD
*35 VSS
*36 VDD1
*37 VSS1
*38 wb_ack_o_reg
*39 ctr_reg_7_
*40 ctr_reg_6_
*41 ctr_reg_5_
*42 ctr_reg_4_
*43 ctr_reg_3_
*44 ctr_reg_2_
*45 ctr_reg_1_
*46 ctr_reg_0_
*47 txr_reg_7_
*48 txr_reg_6_
*49 txr_reg_5_
*50 txr_reg_4_
*51 txr_reg_3_
*52 txr_reg_2_
*53 txr_reg_1_
*54 txr_reg_0_
*55 prer_reg_15_
*56 prer_reg_14_
*57 prer_reg_13_
*58 prer_reg_12_
*59 prer_reg_11_
*60 prer_reg_10_
*61 prer_reg_9_
*62 prer_reg_8_
*63 prer_reg_7_
*64 prer_reg_6_
*65 prer_reg_5_
*66 prer_reg_4_
*67 prer_reg_3_
*68 prer_reg_2_
*69 prer_reg_1_
*70 prer_reg_0_
*71 cr_reg_3_
*72 cr_reg_4_
*73 wb_dat_o_reg_4_
*74 cr_reg_5_
*75 cr_reg_6_
*76 wb_dat_o_reg_6_
*77 cr_reg_7_
*78 wb_dat_o_reg_3_
*79 cr_reg_2_
*80 wb_dat_o_reg_2_
*81 cr_reg_1_
*82 cr_reg_0_
*83 al_reg
*84 wb_dat_o_reg_5_
*85 rxack_reg
*86 wb_dat_o_reg_7_
*87 tip_reg
*88 wb_dat_o_reg_1_
*89 irq_flag_reg
*90 wb_dat_o_reg_0_
*91 wb_inta_o_reg
*92 U342
*93 U343
*94 U344
*95 U345
*96 U346
*97 U347
*98 U348
*99 U349
*100 U351
*101 U352
*102 U353
*103 U354
*104 U355
*105 U356
*106 U357
*107 U358
*108 U359
*109 U360
*110 U361
*111 U362
*112 U363
*113 U364
*114 U365
*115 U366
*116 U367
*117 U368
*118 U369
*119 U370
*120 U371
*121 U372
*122 U373
*123 U374
*124 U375
*125 U376
*126 U377
*127 U378
*128 U379
*129 U380
*130 ctmTdsLR_1_726
*131 ctmTdsLR_2_727
*132 byte_controller/bit_controller/copt_h_inst_728
*133 U383
*134 U384
*135 U385
*136 byte_controller/bit_controller/copt_h_inst_729
*137 U387
*138 U389
*139 U390
*140 U391
*141 U392
*142 U393
*143 U394
*144 U395
*145 U396
*146 U397
*147 U398
*148 U399
*149 U400
*150 U401
*151 U402
*152 U403
*153 U404
*154 U405
*155 U406
*156 U407
*157 U408
*158 U409
*159 U410
*160 U411
*161 U412
*162 U413
*163 U414
*164 U415
*165 U416
*166 U417
*167 U418
*168 U419
*169 U420
*170 U421
*171 U422
*172 U423
*173 U424
*174 U425
*175 U426
*176 U427
*177 U428
*178 byte_controller/ctmTdsLR_1_286
*179 HFSINV_545_1
*180 U431
*181 U432
*182 U433
*183 U434
*184 U435
*185 U436
*186 U437
*187 U438
*188 U439
*189 U440
*190 U441
*191 U442
*192 U443
*193 U444
*194 U445
*195 U446
*196 U447
*197 U448
*198 U449
*199 U450
*200 byte_controller/ld_reg
*201 byte_controller/sr_reg_1_
*202 byte_controller/sr_reg_2_
*203 byte_controller/sr_reg_3_
*204 byte_controller/sr_reg_4_
*205 byte_controller/sr_reg_5_
*206 byte_controller/sr_reg_6_
*207 byte_controller/sr_reg_7_
*208 byte_controller/core_txd_reg
*209 byte_controller/shift_reg
*210 byte_controller/sr_reg_0_
*211 byte_controller/dcnt_reg_0_
*212 byte_controller/dcnt_reg_1_
*213 byte_controller/dcnt_reg_2_
*214 byte_controller/c_state_reg_1_
*215 byte_controller/c_state_reg_4_
*216 byte_controller/cmd_ack_reg
*217 byte_controller/core_cmd_reg_1_
*218 byte_controller/core_cmd_reg_0_
*219 byte_controller/c_state_reg_0_
*220 byte_controller/c_state_reg_2_
*221 byte_controller/c_state_reg_3_
*222 byte_controller/core_cmd_reg_2_
*223 byte_controller/core_cmd_reg_3_
*224 byte_controller/ack_out_reg
*225 byte_controller/U52
*226 byte_controller/U53
*227 byte_controller/U54
*228 byte_controller/U55
*229 byte_controller/U56
*230 byte_controller/U57
*231 byte_controller/U58
*232 byte_controller/U59
*233 byte_controller/U60
*234 byte_controller/U61
*235 byte_controller/U62
*236 byte_controller/U63
*237 byte_controller/U64
*238 byte_controller/U65
*239 byte_controller/U66
*240 byte_controller/U67
*241 ZCTSBUF_3630_578
*242 byte_controller/bit_controller/ctmTdsLR_1_288
*243 byte_controller/U70
*244 byte_controller/U71
*245 byte_controller/U72
*246 byte_controller/U73
*247 byte_controller/U74
*248 byte_controller/U75
*249 byte_controller/U76
*250 byte_controller/U77
*251 byte_controller/U78
*252 byte_controller/U79
*253 byte_controller/U80
*254 byte_controller/U83
*255 byte_controller/U84
*256 byte_controller/bit_controller/ctmTdsLR_1_290
*257 byte_controller/bit_controller/ctmTdsLR_1_291
*258 byte_controller/U87
*259 byte_controller/U89
*260 byte_controller/U90
*261 byte_controller/U91
*262 byte_controller/U92
*263 byte_controller/U93
*264 byte_controller/U94
*265 byte_controller/U95
*266 byte_controller/U96
*267 byte_controller/U97
*268 byte_controller/U98
*269 byte_controller/U99
*270 byte_controller/U100
*271 byte_controller/U101
*272 byte_controller/U102
*273 HFSBUF_1144_2
*274 byte_controller/U5
*275 byte_controller/U6
*276 byte_controller/U7
*277 byte_controller/U8
*278 byte_controller/ctmTdsLR_1_289
*279 byte_controller/bit_controller/ZCTSBUF_4306_579
*280 byte_controller/U11
*281 byte_controller/U12
*282 byte_controller/U13
*283 byte_controller/U14
*284 byte_controller/U15
*285 byte_controller/U16
*286 byte_controller/U17
*287 byte_controller/U18
*288 byte_controller/U19
*289 byte_controller/U20
*290 byte_controller/U21
*291 byte_controller/U22
*292 byte_controller/U23
*293 byte_controller/U24
*294 byte_controller/U25
*295 byte_controller/U26
*296 byte_controller/U27
*297 byte_controller/U28
*298 byte_controller/U29
*299 byte_controller/U30
*300 byte_controller/U31
*301 byte_controller/U32
*302 byte_controller/U33
*303 byte_controller/U34
*304 byte_controller/U35
*305 byte_controller/U36
*306 byte_controller/U37
*307 byte_controller/bit_controller/cSDA_reg_0_
*308 byte_controller/bit_controller/cSDA_reg_1_
*309 byte_controller/bit_controller/cSCL_reg_0_
*310 byte_controller/bit_controller/cSCL_reg_1_
*311 byte_controller/bit_controller/filter_cnt_reg_0_
*312 byte_controller/bit_controller/filter_cnt_reg_7_
*313 byte_controller/bit_controller/filter_cnt_reg_1_
*314 byte_controller/bit_controller/filter_cnt_reg_2_
*315 byte_controller/bit_controller/filter_cnt_reg_3_
*316 byte_controller/bit_controller/filter_cnt_reg_4_
*317 byte_controller/bit_controller/filter_cnt_reg_5_
*318 byte_controller/bit_controller/filter_cnt_reg_6_
*319 byte_controller/bit_controller/filter_cnt_reg_8_
*320 byte_controller/bit_controller/filter_cnt_reg_9_
*321 byte_controller/bit_controller/filter_cnt_reg_10_
*322 byte_controller/bit_controller/filter_cnt_reg_11_
*323 byte_controller/bit_controller/filter_cnt_reg_12_
*324 byte_controller/bit_controller/filter_cnt_reg_13_
*325 byte_controller/bit_controller/fSCL_reg_0_
*326 byte_controller/bit_controller/fSCL_reg_1_
*327 byte_controller/bit_controller/fSCL_reg_2_
*328 byte_controller/bit_controller/fSDA_reg_0_
*329 byte_controller/bit_controller/fSDA_reg_1_
*330 byte_controller/bit_controller/fSDA_reg_2_
*331 byte_controller/bit_controller/sSCL_reg
*332 byte_controller/bit_controller/dSCL_reg
*333 byte_controller/bit_controller/sSDA_reg
*334 byte_controller/bit_controller/dSDA_reg
*335 byte_controller/bit_controller/sta_condition_reg
*336 byte_controller/bit_controller/sto_condition_reg
*337 byte_controller/bit_controller/busy_reg
*338 byte_controller/bit_controller/dout_reg
*339 byte_controller/bit_controller/c_state_reg_0_
*340 byte_controller/bit_controller/scl_oen_reg
*341 byte_controller/bit_controller/dscl_oen_reg
*342 byte_controller/bit_controller/slave_wait_reg
*343 byte_controller/bit_controller/cnt_reg_0_
*344 byte_controller/bit_controller/clk_en_reg
*345 byte_controller/bit_controller/cmd_stop_reg
*346 byte_controller/bit_controller/c_state_reg_1_
*347 byte_controller/bit_controller/c_state_reg_2_
*348 byte_controller/bit_controller/c_state_reg_3_
*349 byte_controller/bit_controller/c_state_reg_4_
*350 byte_controller/bit_controller/c_state_reg_13_
*351 byte_controller/bit_controller/c_state_reg_14_
*352 byte_controller/bit_controller/c_state_reg_15_
*353 byte_controller/bit_controller/sda_chk_reg
*354 byte_controller/bit_controller/c_state_reg_16_
*355 byte_controller/bit_controller/c_state_reg_5_
*356 byte_controller/bit_controller/c_state_reg_6_
*357 byte_controller/bit_controller/c_state_reg_7_
*358 byte_controller/bit_controller/c_state_reg_8_
*359 byte_controller/bit_controller/c_state_reg_9_
*360 byte_controller/bit_controller/c_state_reg_10_
*361 byte_controller/bit_controller/c_state_reg_11_
*362 byte_controller/bit_controller/c_state_reg_12_
*363 byte_controller/bit_controller/sda_oen_reg
*364 byte_controller/bit_controller/al_reg
*365 byte_controller/bit_controller/cmd_ack_reg
*366 byte_controller/bit_controller/cnt_reg_15_
*367 byte_controller/bit_controller/cnt_reg_1_
*368 byte_controller/bit_controller/cnt_reg_2_
*369 byte_controller/bit_controller/cnt_reg_3_
*370 byte_controller/bit_controller/cnt_reg_4_
*371 byte_controller/bit_controller/cnt_reg_5_
*372 byte_controller/bit_controller/cnt_reg_6_
*373 byte_controller/bit_controller/cnt_reg_7_
*374 byte_controller/bit_controller/cnt_reg_8_
*375 byte_controller/bit_controller/cnt_reg_9_
*376 byte_controller/bit_controller/cnt_reg_10_
*377 byte_controller/bit_controller/cnt_reg_11_
*378 byte_controller/bit_controller/cnt_reg_12_
*379 byte_controller/bit_controller/cnt_reg_13_
*380 byte_controller/bit_controller/cnt_reg_14_
*381 byte_controller/bit_controller/U85
*382 byte_controller/bit_controller/U86
*383 byte_controller/bit_controller/U87
*384 byte_controller/bit_controller/U88
*385 byte_controller/bit_controller/U89
*386 byte_controller/bit_controller/U90
*387 ZCTSBUF_2594_580
*388 ZCTSBUF_1445_581
*389 byte_controller/bit_controller/ctosc_gls_inst_686
*390 byte_controller/bit_controller/U93
*391 byte_controller/bit_controller/ctmTdsLR_1_292
*392 byte_controller/bit_controller/U95
*393 byte_controller/bit_controller/U96
*394 byte_controller/bit_controller/U97
*395 byte_controller/bit_controller/U98
*396 byte_controller/bit_controller/U99
*397 byte_controller/bit_controller/U100
*398 byte_controller/bit_controller/U101
*399 byte_controller/bit_controller/U102
*400 byte_controller/bit_controller/U103
*401 byte_controller/bit_controller/U104
*402 byte_controller/bit_controller/U105
*403 byte_controller/bit_controller/U106
*404 byte_controller/ctmTdsLR_1_294
*405 byte_controller/ctmTdsLR_2_295
*406 byte_controller/bit_controller/ctmTdsLR_1_296
*407 byte_controller/bit_controller/U109
*408 byte_controller/bit_controller/U110
*409 byte_controller/bit_controller/U111
*410 byte_controller/bit_controller/U112
*411 byte_controller/bit_controller/U113
*412 byte_controller/bit_controller/U114
*413 byte_controller/bit_controller/U115
*414 byte_controller/bit_controller/U116
*415 byte_controller/bit_controller/U117
*416 byte_controller/bit_controller/U118
*417 byte_controller/bit_controller/U119
*418 byte_controller/bit_controller/U120
*419 byte_controller/bit_controller/U121
*420 byte_controller/bit_controller/U122
*421 byte_controller/bit_controller/U123
*422 byte_controller/bit_controller/U124
*423 byte_controller/bit_controller/U125
*424 byte_controller/bit_controller/U126
*425 byte_controller/bit_controller/U127
*426 byte_controller/bit_controller/U128
*427 byte_controller/bit_controller/U129
*428 byte_controller/bit_controller/U130
*429 byte_controller/bit_controller/U131
*430 byte_controller/bit_controller/U132
*431 byte_controller/bit_controller/ctmTdsLR_2_293
*432 byte_controller/bit_controller/U134
*433 byte_controller/bit_controller/U135
*434 byte_controller/bit_controller/U136
*435 byte_controller/bit_controller/U137
*436 byte_controller/bit_controller/U138
*437 byte_controller/bit_controller/U140
*438 byte_controller/bit_controller/U141
*439 byte_controller/bit_controller/U142
*440 byte_controller/bit_controller/U143
*441 byte_controller/bit_controller/U144
*442 byte_controller/bit_controller/U145
*443 byte_controller/bit_controller/U146
*444 byte_controller/bit_controller/U147
*445 byte_controller/bit_controller/U148
*446 byte_controller/bit_controller/U150
*447 byte_controller/bit_controller/U151
*448 byte_controller/bit_controller/U152
*449 byte_controller/bit_controller/copt_h_inst_730
*450 copt_h_inst_731
*451 byte_controller/bit_controller/U154
*452 byte_controller/bit_controller/U155
*453 byte_controller/bit_controller/U156
*454 byte_controller/bit_controller/U157
*455 byte_controller/bit_controller/U158
*456 byte_controller/bit_controller/U159
*457 byte_controller/bit_controller/U160
*458 byte_controller/bit_controller/U161
*459 byte_controller/bit_controller/U162
*460 byte_controller/bit_controller/U163
*461 byte_controller/bit_controller/U164
*462 byte_controller/bit_controller/U165
*463 byte_controller/bit_controller/U166
*464 byte_controller/bit_controller/U167
*465 byte_controller/bit_controller/U168
*466 byte_controller/bit_controller/U169
*467 byte_controller/bit_controller/U170
*468 byte_controller/bit_controller/U171
*469 byte_controller/bit_controller/U172
*470 byte_controller/bit_controller/U173
*471 byte_controller/bit_controller/U174
*472 byte_controller/bit_controller/U175
*473 byte_controller/bit_controller/U176
*474 byte_controller/bit_controller/U179
*475 byte_controller/bit_controller/U180
*476 byte_controller/bit_controller/U181
*477 byte_controller/bit_controller/U182
*478 HFSBUF_726_3
*479 byte_controller/HFSBUF_461_4
*480 byte_controller/bit_controller/HFSBUF_362_5
*481 byte_controller/ctmTdsLR_2_287
*482 byte_controller/bit_controller/U9
*483 byte_controller/bit_controller/ctmTdsLR_2_297
*484 byte_controller/bit_controller/U11
*485 byte_controller/bit_controller/U12
*486 byte_controller/bit_controller/U13
*487 byte_controller/bit_controller/U14
*488 byte_controller/bit_controller/U15
*489 byte_controller/bit_controller/U16
*490 byte_controller/bit_controller/U17
*491 byte_controller/bit_controller/U18
*492 byte_controller/bit_controller/U19
*493 byte_controller/bit_controller/U20
*494 byte_controller/bit_controller/U21
*495 byte_controller/bit_controller/U22
*496 ctmTdsLR_1_721
*497 byte_controller/bit_controller/U25
*498 byte_controller/bit_controller/U26
*499 byte_controller/bit_controller/U27
*500 ctmTdsLR_2_722
*501 byte_controller/bit_controller/U29
*502 byte_controller/bit_controller/U31
*503 byte_controller/bit_controller/U32
*504 byte_controller/bit_controller/U33
*505 byte_controller/bit_controller/U34
*506 byte_controller/bit_controller/U35
*507 byte_controller/bit_controller/U36
*508 byte_controller/bit_controller/U37
*509 byte_controller/bit_controller/U38
*510 byte_controller/bit_controller/U39
*511 byte_controller/bit_controller/U40
*512 byte_controller/bit_controller/U41
*513 byte_controller/bit_controller/U42
*514 byte_controller/bit_controller/U43
*515 byte_controller/bit_controller/U44
*516 byte_controller/bit_controller/U45
*517 byte_controller/bit_controller/U46
*518 byte_controller/bit_controller/U47
*519 byte_controller/bit_controller/U48
*520 byte_controller/bit_controller/U49
*521 ctmTdsLR_3_723
*522 byte_controller/bit_controller/U51
*523 byte_controller/bit_controller/sub_260/U12
*524 byte_controller/bit_controller/sub_260/U13
*525 byte_controller/bit_controller/sub_260/U14
*526 byte_controller/bit_controller/sub_260/U15
*527 byte_controller/bit_controller/sub_260/U16
*528 byte_controller/bit_controller/sub_260/U17
*529 byte_controller/bit_controller/sub_260/U18
*530 byte_controller/bit_controller/sub_260/U19
*531 byte_controller/bit_controller/sub_260/U20
*532 byte_controller/bit_controller/sub_260/U21
*533 byte_controller/bit_controller/sub_260/U23
*534 byte_controller/bit_controller/sub_260/U24
*535 byte_controller/bit_controller/sub_260/U26
*536 byte_controller/bit_controller/sub_260/U1
*537 byte_controller/bit_controller/sub_260/U2
*538 byte_controller/bit_controller/sub_260/U3
*539 byte_controller/bit_controller/sub_260/U4
*540 byte_controller/bit_controller/sub_260/U5
*541 byte_controller/bit_controller/sub_260/U6
*542 byte_controller/bit_controller/sub_260/U7
*543 byte_controller/bit_controller/sub_260/U8
*544 byte_controller/bit_controller/sub_260/U9
*545 byte_controller/bit_controller/sub_260/U10
*546 byte_controller/bit_controller/sub_260/U11
*547 byte_controller/bit_controller/sub_260/U22
*548 byte_controller/bit_controller/sub_260/U25
*549 byte_controller/bit_controller/sub_260/U27
*550 byte_controller/bit_controller/sub_260/U28
*551 byte_controller/bit_controller/sub_260/U29
*552 byte_controller/bit_controller/sub_260/U30
*553 byte_controller/bit_controller/sub_260/U31
*554 byte_controller/bit_controller/sub_260/U32
*555 byte_controller/bit_controller/sub_260/U33
*556 byte_controller/bit_controller/sub_260/U34
*557 byte_controller/bit_controller/sub_260/U35
*558 byte_controller/bit_controller/sub_260/U36
*559 byte_controller/bit_controller/sub_260/U37
*560 byte_controller/bit_controller/sub_228/U14
*561 byte_controller/bit_controller/sub_228/U15
*562 byte_controller/bit_controller/sub_228/U16
*563 byte_controller/bit_controller/sub_228/U17
*564 byte_controller/bit_controller/sub_228/U18
*565 byte_controller/bit_controller/sub_228/U19
*566 byte_controller/bit_controller/sub_228/U20
*567 byte_controller/bit_controller/sub_228/U21
*568 byte_controller/bit_controller/sub_228/U22
*569 byte_controller/bit_controller/sub_228/U23
*570 byte_controller/bit_controller/sub_228/U25
*571 byte_controller/bit_controller/sub_228/U26
*572 byte_controller/bit_controller/sub_228/U28
*573 byte_controller/bit_controller/sub_228/U30
*574 byte_controller/bit_controller/sub_228/U32
*575 byte_controller/bit_controller/sub_228/U1
*576 byte_controller/bit_controller/sub_228/U2
*577 byte_controller/bit_controller/sub_228/U3
*578 byte_controller/bit_controller/sub_228/U4
*579 byte_controller/bit_controller/sub_228/U5
*580 byte_controller/bit_controller/sub_228/U6
*581 byte_controller/bit_controller/sub_228/U7
*582 byte_controller/bit_controller/sub_228/U8
*583 byte_controller/bit_controller/sub_228/U9
*584 byte_controller/bit_controller/sub_228/U10
*585 byte_controller/bit_controller/sub_228/U11
*586 byte_controller/bit_controller/sub_228/U12
*587 byte_controller/bit_controller/sub_228/U13
*588 byte_controller/bit_controller/sub_228/U24
*589 byte_controller/bit_controller/sub_228/U27
*590 byte_controller/bit_controller/sub_228/U29
*591 byte_controller/bit_controller/sub_228/U31
*592 byte_controller/bit_controller/sub_228/U33
*593 byte_controller/bit_controller/sub_228/U34
*594 byte_controller/bit_controller/sub_228/U35
*595 byte_controller/bit_controller/sub_228/U36
*596 byte_controller/bit_controller/sub_228/U37
*597 byte_controller/bit_controller/sub_228/U38
*598 byte_controller/bit_controller/sub_228/U39
*599 byte_controller/bit_controller/sub_228/U40
*600 byte_controller/bit_controller/sub_228/U41
*601 byte_controller/bit_controller/sub_228/U42
*602 byte_controller/bit_controller/sub_228/U43
*603 ctmTdsLR_4_724
*604 byte_controller/bit_controller/ctmTdsLR_1_725
*605 byte_controller/bit_controller/copt_h_inst_732
*606 byte_controller/bit_controller/copt_h_inst_733
*607 byte_controller/bit_controller/copt_h_inst_734
*608 copt_h_inst_735
*609 byte_controller/bit_controller/copt_h_inst_736
*610 copt_h_inst_737
*611 byte_controller/bit_controller/copt_h_inst_738
*612 byte_controller/bit_controller/copt_h_inst_739
*613 copt_h_inst_740
*614 copt_h_inst_741
*615 copt_h_inst_742
*616 byte_controller/bit_controller/copt_h_inst_743
*617 copt_h_inst_744
*618 copt_h_inst_745
*619 copt_h_inst_746
*620 byte_controller/bit_controller/copt_h_inst_747
*621 copt_h_inst_748
*622 byte_controller/copt_h_inst_749
*623 copt_h_inst_750
*624 copt_h_inst_751
*625 copt_h_inst_752
*626 copt_h_inst_753
*627 copt_h_inst_754
*628 copt_h_inst_755
*629 copt_h_inst_756
*630 copt_h_inst_757
*631 copt_h_inst_758
*632 copt_h_inst_759
*633 copt_h_inst_760
*634 byte_controller/copt_h_inst_761
*635 byte_controller/copt_h_inst_762
*636 copt_h_inst_763
*637 copt_h_inst_764
*638 copt_h_inst_765
*639 copt_h_inst_766
*640 copt_h_inst_767
*641 copt_h_inst_768
*642 copt_h_inst_769
*643 copt_h_inst_770
*644 copt_h_inst_771
*645 byte_controller/copt_h_inst_772
*646 copt_h_inst_773
*647 copt_h_inst_774
*648 copt_h_inst_775
*649 copt_h_inst_776
*650 copt_h_inst_777
*651 copt_h_inst_778
*652 byte_controller/copt_h_inst_779
*653 byte_controller/bit_controller/copt_h_inst_780
*654 copt_h_inst_781
*655 copt_h_inst_782
*656 copt_h_inst_783
*657 byte_controller/copt_h_inst_784
*658 byte_controller/bit_controller/copt_h_inst_785
*659 copt_h_inst_786
*660 byte_controller/bit_controller/copt_h_inst_787
*661 byte_controller/bit_controller/copt_h_inst_788
*662 copt_h_inst_789
*663 byte_controller/copt_h_inst_790
*664 copt_h_inst_791
*665 byte_controller/copt_h_inst_792
*666 byte_controller/bit_controller/copt_h_inst_793
*667 byte_controller/copt_h_inst_794
*668 byte_controller/bit_controller/ropt_h_inst_923
*669 byte_controller/copt_h_inst_796
*670 byte_controller/bit_controller/copt_h_inst_797
*671 byte_controller/bit_controller/copt_h_inst_798
*672 byte_controller/bit_controller/copt_h_inst_799
*673 byte_controller/bit_controller/copt_h_inst_800
*674 byte_controller/copt_h_inst_801
*675 byte_controller/copt_h_inst_802
*676 byte_controller/bit_controller/copt_h_inst_803
*677 byte_controller/bit_controller/copt_h_inst_804
*678 byte_controller/bit_controller/copt_h_inst_805
*679 byte_controller/copt_h_inst_806
*680 byte_controller/copt_h_inst_807
*681 byte_controller/bit_controller/copt_h_inst_808
*682 byte_controller/copt_h_inst_809
*683 byte_controller/bit_controller/copt_h_inst_810
*684 byte_controller/bit_controller/copt_h_inst_811
*685 byte_controller/bit_controller/copt_h_inst_812
*686 byte_controller/bit_controller/copt_h_inst_813
*687 byte_controller/bit_controller/copt_h_inst_814
*688 byte_controller/copt_h_inst_815
*689 byte_controller/copt_h_inst_816
*690 byte_controller/bit_controller/copt_h_inst_817
*691 byte_controller/bit_controller/copt_h_inst_818
*692 byte_controller/bit_controller/copt_h_inst_820
*693 byte_controller/bit_controller/copt_h_inst_821
*694 xofiller!SHFILL1!x151200y100000
*695 byte_controller/bit_controller/copt_h_inst_823
*696 byte_controller/bit_controller/copt_h_inst_824
*697 byte_controller/bit_controller/copt_h_inst_825
*698 xofiller!SHFILL1!x154400y100000
*699 xofiller!SHFILL1!x157600y100000
*700 xofiller!SHFILL1!x212000y100000
*701 xofiller!SHFILL1!x215200y100000
*702 xofiller!SHFILL1!x218400y100000
*703 xofiller!SHFILL1!x250400y100000
*704 byte_controller/bit_controller/copt_h_inst_829
*705 xofiller!SHFILL1!x253600y100000
*706 xofiller!SHFILL1!x256800y100000
*707 byte_controller/bit_controller/copt_h_inst_831
*708 byte_controller/copt_h_inst_832
*709 byte_controller/bit_controller/copt_h_inst_833
*710 byte_controller/copt_h_inst_834
*711 byte_controller/bit_controller/copt_h_inst_835
*712 byte_controller/bit_controller/copt_h_inst_836
*713 byte_controller/bit_controller/copt_h_inst_837
*714 byte_controller/bit_controller/copt_h_inst_838
*715 byte_controller/bit_controller/copt_h_inst_839
*716 byte_controller/copt_h_inst_840
*717 byte_controller/bit_controller/copt_h_inst_841
*718 copt_h_inst_842
*719 copt_h_inst_843
*720 copt_h_inst_844
*721 copt_h_inst_845
*722 copt_h_inst_846
*723 copt_h_inst_847
*724 copt_h_inst_848
*725 byte_controller/copt_h_inst_849
*726 copt_h_inst_850
*727 byte_controller/bit_controller/copt_h_inst_851
*728 byte_controller/copt_h_inst_852
*729 byte_controller/bit_controller/copt_h_inst_853
*730 byte_controller/bit_controller/copt_h_inst_854
*731 copt_h_inst_855
*732 byte_controller/copt_h_inst_856
*733 byte_controller/copt_h_inst_857
*734 byte_controller/copt_h_inst_858
*735 byte_controller/bit_controller/copt_h_inst_859
*736 byte_controller/bit_controller/copt_h_inst_860
*737 byte_controller/bit_controller/copt_h_inst_861
*738 byte_controller/bit_controller/copt_h_inst_862
*739 copt_h_inst_863
*740 byte_controller/bit_controller/copt_h_inst_864
*741 byte_controller/bit_controller/copt_h_inst_865
*742 byte_controller/bit_controller/copt_h_inst_866
*743 byte_controller/bit_controller/copt_h_inst_867
*744 byte_controller/bit_controller/copt_h_inst_868
*745 copt_h_inst_869
*746 byte_controller/bit_controller/copt_h_inst_870
*747 xofiller!SHFILL1!x260000y100000
*748 xofiller!SHFILL1!x263200y100000
*749 byte_controller/bit_controller/copt_h_inst_872
*750 byte_controller/bit_controller/copt_h_inst_873
*751 byte_controller/bit_controller/copt_h_inst_874
*752 byte_controller/copt_h_inst_875
*753 byte_controller/copt_h_inst_876
*754 byte_controller/bit_controller/copt_h_inst_877
*755 byte_controller/bit_controller/sub_260/copt_h_inst_878
*756 byte_controller/copt_h_inst_879
*757 byte_controller/bit_controller/copt_h_inst_880
*758 byte_controller/bit_controller/sub_260/copt_h_inst_881
*759 byte_controller/copt_h_inst_882
*760 byte_controller/bit_controller/sub_260/copt_h_inst_883
*761 byte_controller/bit_controller/copt_h_inst_884
*762 byte_controller/bit_controller/copt_h_inst_885
*763 byte_controller/bit_controller/sub_260/copt_h_inst_886
*764 byte_controller/copt_h_inst_887
*765 byte_controller/bit_controller/copt_h_inst_888
*766 byte_controller/bit_controller/copt_h_inst_889
*767 byte_controller/bit_controller/copt_h_inst_890
*768 byte_controller/bit_controller/copt_h_inst_891
*769 xofiller!SHFILL1!x301600y100000
*770 xofiller!SHFILL1!x487200y100000
*771 byte_controller/bit_controller/copt_h_inst_893
*772 byte_controller/bit_controller/copt_h_inst_894
*773 byte_controller/copt_h_inst_895
*774 xofiller!SHFILL1!x749600y100000
*775 xofiller!SHFILL1!x804000y100000
*776 byte_controller/copt_h_inst_897
*777 byte_controller/bit_controller/copt_h_inst_898
*778 byte_controller/bit_controller/copt_h_inst_899
*779 copt_h_inst_900
*780 byte_controller/copt_h_inst_901
*781 byte_controller/bit_controller/copt_h_inst_902
*782 byte_controller/bit_controller/copt_h_inst_903
*783 byte_controller/bit_controller/copt_h_inst_904
*784 byte_controller/bit_controller/copt_h_inst_905
*785 byte_controller/bit_controller/copt_h_inst_906
*786 byte_controller/bit_controller/copt_h_inst_907
*787 byte_controller/bit_controller/copt_h_inst_908
*788 byte_controller/bit_controller/copt_h_inst_909
*789 byte_controller/bit_controller/copt_h_inst_910
*790 byte_controller/bit_controller/copt_h_inst_911
*791 xofiller!SHFILL1!x807200y100000
*792 xofiller!SHFILL1!x810400y100000
*793 xofiller!SHFILL1!x813600y100000
*794 xofiller!SHFILL1!x816800y100000
*795 byte_controller/copt_h_inst_914
*796 byte_controller/copt_h_inst_915
*797 xofiller!SHFILL1!x820000y100000
*798 xofiller!SHFILL1!x909600y100000
*799 byte_controller/copt_h_inst_917
*800 xofiller!SHFILL1!x912800y100000
*801 xofiller!SHFILL1!x916000y100000
*802 byte_controller/bit_controller/copt_h_inst_919
*803 xofiller!SHFILL1!x919200y100000
*804 xofiller!SHFILL1!x922400y100000
*805 xofiller!SHFILL1!x925600y100000
*806 xofiller!SHFILL1!x928800y100000
*807 xofiller!SHFILL1!x932000y100000
*808 xofiller!SHFILL1!x935200y100000
*809 xofiller!SHFILL1!x938400y100000
*810 xofiller!SHFILL1!x941600y100000
*811 xofiller!SHFILL1!x996000y100000
*812 xofiller!SHFILL1!x999200y100000
*813 xofiller!SHFILL1!x1002400y100000
*814 xofiller!SHFILL1!x1005600y100000
*815 xofiller!SHFILL1!x1008800y100000
*816 xofiller!SHFILL1!x1012000y100000
*817 xofiller!SHFILL1!x1015200y100000
*818 xofiller!SHFILL1!x1130400y100000
*819 xofiller!SHFILL1!x1133600y100000
*820 xofiller!SHFILL1!x1136800y100000
*821 xofiller!SHFILL1!x119200y128800
*822 xofiller!SHFILL1!x122400y128800
*823 xofiller!SHFILL1!x125600y128800
*824 xofiller!SHFILL1!x128800y128800
*825 xofiller!SHFILL1!x132000y128800
*826 xofiller!SHFILL1!x135200y128800
*827 xofiller!SHFILL1!x138400y128800
*828 xofiller!SHFILL1!x167200y128800
*829 xofiller!SHFILL1!x170400y128800
*830 xofiller!SHFILL1!x173600y128800
*831 xofiller!SHFILL1!x176800y128800
*832 xofiller!SHFILL1!x180000y128800
*833 xofiller!SHFILL1!x183200y128800
*834 xofiller!SHFILL1!x186400y128800
*835 xofiller!SHFILL1!x189600y128800
*836 xofiller!SHFILL1!x192800y128800
*837 xofiller!SHFILL1!x196000y128800
*838 xofiller!SHFILL1!x199200y128800
*839 xofiller!SHFILL1!x314400y128800
*840 xofiller!SHFILL1!x317600y128800
*841 xofiller!SHFILL1!x320800y128800
*842 xofiller!SHFILL1!x324000y128800
*843 xofiller!SHFILL1!x327200y128800
*844 xofiller!SHFILL1!x330400y128800
*845 xofiller!SHFILL1!x333600y128800
*846 xofiller!SHFILL1!x336800y128800
*847 xofiller!SHFILL1!x340000y128800
*848 xofiller!SHFILL1!x343200y128800
*849 xofiller!SHFILL1!x346400y128800
*850 xofiller!SHFILL1!x349600y128800
*851 xofiller!SHFILL1!x352800y128800
*852 xofiller!SHFILL1!x356000y128800
*853 xofiller!SHFILL1!x359200y128800
*854 xofiller!SHFILL1!x362400y128800
*855 xofiller!SHFILL1!x410400y128800
*856 xofiller!SHFILL1!x413600y128800
*857 xofiller!SHFILL1!x416800y128800
*858 xofiller!SHFILL1!x420000y128800
*859 xofiller!SHFILL1!x423200y128800
*860 xofiller!SHFILL1!x426400y128800
*861 xofiller!SHFILL1!x429600y128800
*862 xofiller!SHFILL1!x432800y128800
*863 xofiller!SHFILL1!x436000y128800
*864 xofiller!SHFILL1!x439200y128800
*865 xofiller!SHFILL1!x442400y128800
*866 xofiller!SHFILL1!x445600y128800
*867 xofiller!SHFILL1!x448800y128800
*868 xofiller!SHFILL1!x452000y128800
*869 xofiller!SHFILL1!x455200y128800
*870 xofiller!SHFILL1!x458400y128800
*871 xofiller!SHFILL1!x573600y128800
*872 xofiller!SHFILL1!x576800y128800
*873 xofiller!SHFILL1!x580000y128800
*874 xofiller!SHFILL1!x583200y128800
*875 xofiller!SHFILL1!x586400y128800
*876 xofiller!SHFILL1!x589600y128800
*877 xofiller!SHFILL1!x592800y128800
*878 xofiller!SHFILL1!x596000y128800
*879 xofiller!SHFILL1!x599200y128800
*880 xofiller!SHFILL1!x602400y128800
*881 xofiller!SHFILL1!x605600y128800